
**** 06/10/24 13:45:54 ****** PSpice 17.2.0 (March 2016) ****** ID# 0 ********

 ** Profile: "SCHEMATIC1-trans"  [ C:\Users\mazzshaikh\Downloads\ELAB-B-main\ELAB-B-main\Lab1\1_4\1_4-PSpiceFiles\SCHEMATIC1\trans.si


 ****     CIRCUIT DESCRIPTION


******************************************************************************




** Creating circuit file "trans.cir" 
** WARNING: THIS AUTOMATICALLY GENERATED FILE MAY BE OVERWRITTEN BY SUBSEQUENT SIMULATIONS

*Libraries: 
* Profile Libraries :
* Local Libraries :
* From [PSPICE NETLIST] section of C:\cdssetup\OrCAD_PSpice\17.2.0\PSpice.ini file:
.lib "C:\Cadence\SPB_17.2\tools\pspice\library\nom.lib" 
.lib "nomd.lib" 

*Analysis directives: 
.TRAN  0 50us 0 
.OPTIONS ADVCONV
.OPTIONS DIGINITSTATE= 0
.PROBE64 V(alias(*)) I(alias(*)) W(alias(*)) D(alias(*)) NOISE(alias(*)) 
.INC "..\SCHEMATIC1.net" 



**** INCLUDING SCHEMATIC1.net ****
* source 1_4
X_U1         HIGH CLK 0 N15349 HIGH HIGH HIGH 0 M_UN0001 M_UN0002 N15357
+  M_UN0003 N15349 M_UN0004 $G_DPWR $G_DGND 74193 PARAMS:
+ IO_LEVEL=0 MNTYMXDLY=0
V_V1         HIGH 0 5Vdc
U_DSTM2         STIM(1,1) $G_DPWR $G_DGND CLK IO_STM IO_LEVEL=0 
+ 0 0
+ +.5uS 1
+REPEAT FOREVER
+ +.5uS 0
+  +.5uS 1
+ ENDREPEAT

**** RESUMING trans.cir ****
.END


**** Generated AtoD and DtoA Interfaces ****

*
* Analog/Digital interface for node 0
*
* Moving X_U1.U193LOG:IN8 from analog node 0 to new digital node 0$AtoD
X$0_AtoD1
+ 0
+ 0$AtoD
+ $G_DPWR
+ $G_DGND
+ AtoD_STD
+       PARAMS: CAPACITANCE=   0     
* Moving X_U1.U193LOG:IN3 from analog node 0 to new digital node 0$AtoD2
X$0_AtoD2
+ 0
+ 0$AtoD2
+ $G_DPWR
+ $G_DGND
+ AtoD_STD
+       PARAMS: CAPACITANCE=   0     
*
* Analog/Digital interface for node HIGH
*
* Moving X_U1.U193LOG:IN7 from analog node HIGH to new digital node HIGH$AtoD
X$HIGH_AtoD1
+ HIGH
+ HIGH$AtoD
+ $G_DPWR
+ $G_DGND
+ AtoD_STD
+       PARAMS: CAPACITANCE=   0     
* Moving X_U1.U193LOG:IN6 from analog node HIGH to new digital node HIGH$AtoD2
X$HIGH_AtoD2
+ HIGH
+ HIGH$AtoD2
+ $G_DPWR
+ $G_DGND
+ AtoD_STD
+       PARAMS: CAPACITANCE=   0     
* Moving X_U1.U193LOG:IN5 from analog node HIGH to new digital node HIGH$AtoD3
X$HIGH_AtoD3
+ HIGH
+ HIGH$AtoD3
+ $G_DPWR
+ $G_DGND
+ AtoD_STD
+       PARAMS: CAPACITANCE=   0     
* Moving X_U1.U193LOG:IN1 from analog node HIGH to new digital node HIGH$AtoD4
X$HIGH_AtoD4
+ HIGH
+ HIGH$AtoD4
+ $G_DPWR
+ $G_DGND
+ AtoD_STD
+       PARAMS: CAPACITANCE=   0     
*
* Analog/Digital interface power supply subcircuits
*
X$DIGIFPWR 0 DIGIFPWR


**** 06/10/24 13:45:54 ****** PSpice 17.2.0 (March 2016) ****** ID# 0 ********

 ** Profile: "SCHEMATIC1-trans"  [ C:\Users\mazzshaikh\Downloads\ELAB-B-main\ELAB-B-main\Lab1\1_4\1_4-PSpiceFiles\SCHEMATIC1\trans.si


 ****     Diode MODEL PARAMETERS


******************************************************************************




               D74CLMP         D74             
          IS    1.000000E-15  100.000000E-18 
          RS    2              25            
         CJO    2.000000E-12    2.000000E-12 


**** 06/10/24 13:45:54 ****** PSpice 17.2.0 (March 2016) ****** ID# 0 ********

 ** Profile: "SCHEMATIC1-trans"  [ C:\Users\mazzshaikh\Downloads\ELAB-B-main\ELAB-B-main\Lab1\1_4\1_4-PSpiceFiles\SCHEMATIC1\trans.si


 ****     BJT MODEL PARAMETERS


******************************************************************************




               Q74             
               NPN             
       LEVEL    1            
          IS  100.000000E-18 
          BF   49            
          NF    1            
         ISE  100.000000E-18 
          BR     .03         
          NR    1            
         ISC  400.000000E-18 
         ISS    0            
          RB   50            
          RE    0            
          RC   20            
         CJE    1.000000E-12 
         VJE     .9          
         MJE     .5          
         CJC  500.000000E-15 
         VJC     .8          
         MJC     .33         
        XCJC    1            
         CJS    3.000000E-12 
         VJS     .7          
         MJS     .33         
          TF  200.000000E-12 
          TR   10.000000E-09 
          KF    0            
          AF    1            
          CN    2.42         
           D     .87         


**** 06/10/24 13:45:54 ****** PSpice 17.2.0 (March 2016) ****** ID# 0 ********

 ** Profile: "SCHEMATIC1-trans"  [ C:\Users\mazzshaikh\Downloads\ELAB-B-main\ELAB-B-main\Lab1\1_4\1_4-PSpiceFiles\SCHEMATIC1\trans.si


 ****     Digital Output MODEL PARAMETERS


******************************************************************************




               DO74            
    TIMESTEP  100.000000E-12 
      S0NAME X               
       S0VHI    2            
       S0VLO     .8          
      S1NAME 0               
       S1VHI     .8          
       S1VLO   -1.5          
      S2NAME R               
       S2VHI    1.4          
       S2VLO     .8          
      S3NAME R               
       S3VHI    2            
       S3VLO    1.3          
      S4NAME X               
       S4VHI    2            
       S4VLO     .8          
      S5NAME 1               
       S5VHI    7            
       S5VLO    2            
      S6NAME F               
       S6VHI    2            
       S6VLO    1.3          
      S7NAME F               
       S7VHI    1.4          
       S7VLO     .8          


**** 06/10/24 13:45:54 ****** PSpice 17.2.0 (March 2016) ****** ID# 0 ********

 ** Profile: "SCHEMATIC1-trans"  [ C:\Users\mazzshaikh\Downloads\ELAB-B-main\ELAB-B-main\Lab1\1_4\1_4-PSpiceFiles\SCHEMATIC1\trans.si


 ****     Digital Gate MODEL PARAMETERS


******************************************************************************




               D0_GATE         
      TPLHMN    0            
      TPLHTY    0            
      TPLHMX    0            
      TPHLMN    0            
      TPHLTY    0            
      TPHLMX    0            


**** 06/10/24 13:45:54 ****** PSpice 17.2.0 (March 2016) ****** ID# 0 ********

 ** Profile: "SCHEMATIC1-trans"  [ C:\Users\mazzshaikh\Downloads\ELAB-B-main\ELAB-B-main\Lab1\1_4\1_4-PSpiceFiles\SCHEMATIC1\trans.si


 ****     Digital Edge Triggered FF MODEL PARAMETERS


******************************************************************************




               D0_EFF          
  TPCLKQLHMN    0            
  TPCLKQLHTY    0            
  TPCLKQLHMX    0            
  TPCLKQHLMN    0            
  TPCLKQHLTY    0            
  TPCLKQHLMX    0            
   TPPCQLHMN    0            
   TPPCQLHTY    0            
   TPPCQLHMX    0            
   TPPCQHLMN    0            
   TPPCQHLTY    0            
   TPPCQHLMX    0            
    TWCLKLMN    0            
    TWCLKLTY    0            
    TWCLKLMX    0            
    TWCLKHMN    0            
    TWCLKHTY    0            
    TWCLKHMX    0            
     TWPCLMN    0            
     TWPCLTY    0            
     TWPCLMX    0            
   TSUDCLKMN    0            
   TSUDCLKTY    0            
   TSUDCLKMX    0            
 TSUPCCLKHMN    0            
 TSUPCCLKHTY    0            
 TSUPCCLKHMX    0            
    THDCLKMN    0            
    THDCLKTY    0            
    THDCLKMX    0            
  TSUCECLKMN    0            
  TSUCECLKTY    0            
  TSUCECLKMX    0            
   THCECLKMN    0            
   THCECLKTY    0            
   THCECLKMX    0            


**** 06/10/24 13:45:54 ****** PSpice 17.2.0 (March 2016) ****** ID# 0 ********

 ** Profile: "SCHEMATIC1-trans"  [ C:\Users\mazzshaikh\Downloads\ELAB-B-main\ELAB-B-main\Lab1\1_4\1_4-PSpiceFiles\SCHEMATIC1\trans.si


 ****     Digital IO  MODEL PARAMETERS


******************************************************************************




               IO_STM          IO_STD          
        DRVL    0             104            
        DRVH    0              96.4          
       AtoD1                 AtoD_STD        
       AtoD2                 AtoD_STD_NX     
       AtoD3                 AtoD_STD        
       AtoD4                 AtoD_STD_NX     
       DtoA1 DtoA_STM        DtoA_STD        
       DtoA2 DtoA_STM        DtoA_STD        
       DtoA3 DtoA_STM        DtoA_STD        
       DtoA4 DtoA_STM        DtoA_STD        
      TSWHL1                    1.511000E-09 
      TSWHL2                    1.487000E-09 
      TSWHL3                    1.511000E-09 
      TSWHL4                    1.487000E-09 
      TSWLH1                    3.517000E-09 
      TSWLH2                    3.564000E-09 
      TSWLH3                    3.517000E-09 
      TSWLH4                    3.564000E-09 
       TPWRT  100.000000E+03  100.000000E+03 


**** 06/10/24 13:45:54 ****** PSpice 17.2.0 (March 2016) ****** ID# 0 ********

 ** Profile: "SCHEMATIC1-trans"  [ C:\Users\mazzshaikh\Downloads\ELAB-B-main\ELAB-B-main\Lab1\1_4\1_4-PSpiceFiles\SCHEMATIC1\trans.si


 ****     INITIAL TRANSIENT SOLUTION       TEMPERATURE =   27.000 DEG C


******************************************************************************



 NODE   VOLTAGE     NODE   VOLTAGE     NODE   VOLTAGE     NODE   VOLTAGE


( HIGH)    5.0000  ($G_DGND)    0.0000                   ($G_DPWR)    5.0000    

(X$0_AtoD1.1)     .0915               (X$0_AtoD1.2)     .0457                   

(X$0_AtoD1.3)     .8277               (X$0_AtoD2.1)     .0915                   

(X$0_AtoD2.2)     .0457               (X$0_AtoD2.3)     .8277                   

(X$HIGH_AtoD1.1)    1.5648            (X$HIGH_AtoD1.2)     .7824                

(X$HIGH_AtoD1.3)    2.2862            (X$HIGH_AtoD2.1)    1.5648                

(X$HIGH_AtoD2.2)     .7824            (X$HIGH_AtoD2.3)    2.2862                

(X$HIGH_AtoD3.1)    1.5648            (X$HIGH_AtoD3.2)     .7824                

(X$HIGH_AtoD3.3)    2.2862            (X$HIGH_AtoD4.1)    1.5648                

(X$HIGH_AtoD4.2)     .7824            (X$HIGH_AtoD4.3)    2.2862            



 DGTL NODE : STATE  DGTL NODE : STATE  DGTL NODE : STATE  DGTL NODE : STATE


( X_U1.QA) : 0     ( X_U1.QB) : 0     (M_UN0003) : 0     (X_U1.QCBAR) : 1       

( X_U1.TC) : 1     (HIGH$AtoD3) : 1   (HIGH$AtoD4) : 1   (X_U1.BOBAR) : 0       

( X_U1.SD) : 1     (   $D_HI) : 1     ( X_U1.SA) : 0     (  X_U1.C) : 1         

(X_U1.QDBAR) : 1   ( X_U1.SB) : 0     (  X_U1.D) : 0     (X_U1.DOWN) : 0        

( X_U1.QC) : 0     ( X_U1.UP) : 1     (M_UN0004) : 1     ( X_U1.RD) : 0         

(M_UN0001) : 0     ( X_U1.RA) : 1     ( X_U1.RB) : 1     (X_U1.COBAR) : 1       

(  0$AtoD) : 0     (X_U1.QABAR) : 1   (X_U1.CLR) : 0     (X_U1.LOADBAR) : 0     

( X_U1.SC) : 0     ( X_U1.TD) : 1     (HIGH$AtoD) : 1    ( X_U1.TA) : 1         

(X_U1.MCLR) : 1    (M_UN0002) : 0     ( X_U1.TB) : 1     ( X_U1.RC) : 1         

(     CLK) : 0     (HIGH$AtoD2) : 1   (X_U1.QBBAR) : 1   (  N15357) : 0         

(  N15349) : 0     (  X_U1.A) : 1     ( X_U1.QD) : 0     ( 0$AtoD2) : 0         

(  X_U1.B) : 1     




    VOLTAGE SOURCE CURRENTS
    NAME         CURRENT

    V_V1        -8.141E-05
    X$DIGIFPWR.VDPWR  -4.805E-03
    X$DIGIFPWR.VDGND  -2.010E-03

    TOTAL POWER DISSIPATION   2.44E-02  WATTS


**** 06/10/24 13:45:54 ****** PSpice 17.2.0 (March 2016) ****** ID# 0 ********

 ** Profile: "SCHEMATIC1-trans"  [ C:\Users\mazzshaikh\Downloads\ELAB-B-main\ELAB-B-main\Lab1\1_4\1_4-PSpiceFiles\SCHEMATIC1\trans.si


 ****     SIMULATION ERRORS


******************************************************************************




DIGITAL Message ID#1 (WARNING):
WIDTH/MIN-LOW Violation at time 7us
  Device: X_U1.U193DLY
  Minimum low WIDTH = 20ns
  NODE: X_U1.LOADBAR, measured WIDTH = 0s


DIGITAL Message ID#2 (WARNING):
WIDTH/MIN-LOW Violation at time 7us
  Device: X_U1.U193DLY
  Minimum low WIDTH = 20ns
  NODE: X_U1.LOADBAR, measured WIDTH = 0s


DIGITAL Message ID#3 (WARNING):
WIDTH/MIN-LOW Violation at time 7us
  Device: X_U1.U193DLY
  Minimum low WIDTH = 20ns
  NODE: X_U1.LOADBAR, measured WIDTH = 0s


DIGITAL Message ID#4 (WARNING):
WIDTH/MIN-LOW Violation at time 7us
  Device: X_U1.U193DLY
  Minimum low WIDTH = 20ns
  NODE: X_U1.LOADBAR, measured WIDTH = 0s


DIGITAL Message ID#5 (WARNING):
WIDTH/MIN-LOW Violation at time 7us
  Device: X_U1.U193DLY
  Minimum low WIDTH = 20ns
  NODE: X_U1.LOADBAR, measured WIDTH = 0s


DIGITAL Message ID#6 (WARNING):
WIDTH/MIN-LOW Violation at time 7us
  Device: X_U1.U193DLY
  Minimum low WIDTH = 20ns
  NODE: X_U1.LOADBAR, measured WIDTH = 0s


DIGITAL Message ID#7 (WARNING):
WIDTH/MIN-LOW Violation at time 7us
  Device: X_U1.U193DLY
  Minimum low WIDTH = 20ns
  NODE: X_U1.LOADBAR, measured WIDTH = 0s


DIGITAL Message ID#8 (WARNING):
WIDTH/MIN-LOW Violation at time 7us
  Device: X_U1.U193DLY
  Minimum low WIDTH = 20ns
  NODE: X_U1.LOADBAR, measured WIDTH = 0s


DIGITAL Message ID#9 (WARNING):
WIDTH/MIN-LOW Violation at time 7us
  Device: X_U1.U193DLY
  Minimum low WIDTH = 20ns
  NODE: X_U1.LOADBAR, measured WIDTH = 0s


DIGITAL Message ID#10 (WARNING):
WIDTH/MIN-LOW Violation at time 7us
  Device: X_U1.U193DLY
  Minimum low WIDTH = 20ns
  NODE: X_U1.LOADBAR, measured WIDTH = 0s


DIGITAL Message ID#11 (WARNING):
WIDTH/MIN-LOW Violation at time 7us
  Device: X_U1.U193DLY
  Minimum low WIDTH = 20ns
  NODE: X_U1.LOADBAR, measured WIDTH = 0s


DIGITAL Message ID#12 (WARNING):
WIDTH/MIN-LOW Violation at time 7us
  Device: X_U1.U193DLY
  Minimum low WIDTH = 20ns
  NODE: X_U1.LOADBAR, measured WIDTH = 0s


DIGITAL Message ID#13 (WARNING):
WIDTH/MIN-LOW Violation at time 7us
  Device: X_U1.U193DLY
  Minimum low WIDTH = 20ns
  NODE: X_U1.LOADBAR, measured WIDTH = 0s


DIGITAL Message ID#14 (WARNING):
WIDTH/MIN-LOW Violation at time 7us
  Device: X_U1.U193DLY
  Minimum low WIDTH = 20ns
  NODE: X_U1.LOADBAR, measured WIDTH = 0s


DIGITAL Message ID#15 (WARNING):
WIDTH/MIN-LOW Violation at time 7us
  Device: X_U1.U193DLY
  Minimum low WIDTH = 20ns
  NODE: X_U1.LOADBAR, measured WIDTH = 0s


DIGITAL Message ID#16 (WARNING):
WIDTH/MIN-LOW Violation at time 7us
  Device: X_U1.U193DLY
  Minimum low WIDTH = 20ns
  NODE: X_U1.LOADBAR, measured WIDTH = 0s


DIGITAL Message ID#17 (WARNING):
WIDTH/MIN-LOW Violation at time 7us
  Device: X_U1.U193DLY
  Minimum low WIDTH = 20ns
  NODE: X_U1.LOADBAR, measured WIDTH = 0s


DIGITAL Message ID#18 (WARNING):
WIDTH/MIN-LOW Violation at time 7us
  Device: X_U1.U193DLY
  Minimum low WIDTH = 20ns
  NODE: X_U1.LOADBAR, measured WIDTH = 0s


DIGITAL Message ID#19 (WARNING):
WIDTH/MIN-LOW Violation at time 7us
  Device: X_U1.U193DLY
  Minimum low WIDTH = 20ns
  NODE: X_U1.LOADBAR, measured WIDTH = 0s


DIGITAL Message ID#20 (WARNING):
WIDTH/MIN-LOW Violation at time 7us
  Device: X_U1.U193DLY
  Minimum low WIDTH = 20ns
  NODE: X_U1.LOADBAR, measured WIDTH = 0s
  ERRORLIMIT reached



          JOB CONCLUDED

**** 06/10/24 13:45:54 ****** PSpice 17.2.0 (March 2016) ****** ID# 0 ********

 ** Profile: "SCHEMATIC1-trans"  [ C:\Users\mazzshaikh\Downloads\ELAB-B-main\ELAB-B-main\Lab1\1_4\1_4-PSpiceFiles\SCHEMATIC1\trans.si


 ****     JOB STATISTICS SUMMARY


******************************************************************************



  Total job time (using Solver 1)   =         .06
